----- AeroDyn Driver v1.00.x Input File ----------------------------------------
Driver file for AeroDyn simulation for Rotor Aerodynamics 
----- Input Configuration ------------------------------------------------------
False	Echo	 - Echo input parameters to "<rootname>.ech"?
"test07_18_14_primary_input.dat"	AD_InputFile	 - Name of the primary AeroDyn input file
----- Turbine Data -------------------------------------------------------------
3	NumBlades	 - Number of blades (-)
1.5	HubRad	 - Hub radius (m)
90.0	HubHt	 - Hub height (m)
-5.0	Overhang	 - Overhang (m)
-5.0	ShftTilt	 - Shaft tilt (deg)
0.0	Precone	 - Blade precone (deg)
----- I/O Settings -------------------------------------------------------------
""	OutFileRoot	 - Root name for any output files (use "" for .dvr rootname) (-)
True	TabDel	 - When generating formatted output (OutForm=True), make output tab-delimited (fixed-width otherwise) (flag)
"ES15.6E3"	OutFmt	 - Format used for text tabular output, excluding the time channel.  Resulting field should be 10 characters. (quoted string)
True	Beep	 - Beep on exit (flag)
----- Combined-Case Analysis ---------------------------------------------------
1	NumCases	 - Number of cases to run
WndSpeed	ShearExp	RotSpd	Pitch	Yaw	dT	Tmax	
(m/s)	(-)	(rpm)	(deg)	(deg)	(s)	(s)	
10.0	0.0	19.1	0.0	0.0	0.5	10.0	
